powerflow/Codes/PF_Formulation/resultados_csv/500bus__pm.csv
ID_Barra,Tipo_Barra,Vm_pu,Va_graus,Pg_pu,Qg_pu,Pd_pu,Qd_pu
1,1,1.011459763879262,-8.585654015314931,0.0,0.0,0.0,0.0
2,1,1.0108797611816802,-8.657560907174638,0.0,0.0,0.428,0.11410000000000001
3,1,1.0037442377145456,-9.897808236660351,0.0,0.0,0.0,0.0
4,1,1.0015746931489653,-10.149945963186394,0.0,0.0,1.327,0.3538
5,1,1.0146960622621282,0.9196430084733564,0.0,0.0,0.0,0.0
6,1,1.0146483592113096,0.9135372757642813,0.0,0.0,0.03213,0.00857
7,1,1.0327201586732784,-4.733922363985703,0.0,0.0,0.0,0.0
8,1,1.0244477156326872,-6.517907587570973,0.0,0.0,0.0,0.0
9,2,1.04,-1.9328764647445815,7.718,1.2321814675425853,0.0,0.0
10,1,1.0170044090585917,-11.838429246106143,0.0,0.0,0.0,0.0
11,1,1.0169677436110989,-11.84257340840466,0.0,0.0,0.02472,0.00659
12,1,0.9949937716950557,-12.687612287555229,0.0,0.0,0.0,0.0
13,1,0.9944479936264587,-12.751475305912523,0.0,0.0,0.3716,0.09910000000000001
14,1,1.0310503531480377,-2.4778746152785818,0.0,0.0,0.0,0.0
15,1,1.0237375955835757,-4.872096896695174,0.0,0.0,0.0,0.0
16,2,1.04,0.36421710558604237,4.444,0.7635834577477911,0.0,0.0
17,3,1.04,0.0,6.476075760444866,1.2915140878946774,0.0,0.0
18,2,1.04,1.8185777171614044,1.5759999999999998,0.19721425292127442,0.0,0.0
19,1,1.0178374894672395,-12.154072962262303,0.0,0.0,0.0,0.0
20,1,1.0177670880146492,-12.163472125299878,0.0,0.0,0.045419999999999995,0.012110000000000001
21,1,1.0086268999230117,-10.171985883677749,0.0,0.0,0.0,0.0
22,1,1.0064991553877165,-10.425223242311008,0.0,0.0,1.4869999999999999,0.39649999999999996
23,1,1.0267929821676696,-5.856866416108982,0.0,0.0,0.0,0.0
24,1,1.0118363794399166,-8.532690178366229,0.0,0.0,0.0,0.0
25,1,1.0118007003473353,-8.53711780273491,0.0,0.0,0.02283,0.00609
26,1,1.0115025326613212,-8.576090682927875,0.0,0.0,0.21660000000000001,0.05777
27,1,1.0375363963267183,-14.126790915875155,0.0,0.0,0.0,0.0
28,1,1.0364753362912347,-14.253526538203134,0.0,0.0,0.6293,0.1678
29,1,1.005204191559404,-12.430787961015442,0.0,0.0,0.0,0.0
30,1,1.0037092765041546,-12.608716746700038,0.0,0.0,0.9997,0.2666
31,1,1.0330727485426554,-14.899982150078094,0.0,0.0,0.0,0.0
32,1,1.0329271480420101,-14.91708790926922,0.0,0.0,0.09765,0.02604
33,1,1.0057066464344437,-13.139050780674214,0.0,0.0,0.0,0.0
34,1,1.0053333522578203,-13.183211222283507,0.0,0.0,0.25,0.06666
35,1,1.0185660282561415,-13.725856272124535,0.0,0.0,0.0,0.0
36,1,1.0179729290846393,-13.794716579373482,0.0,0.0,0.4335,0.11560000000000001
37,1,1.019536806189432,1.2991553078542617,0.0,0.0,0.0,0.0
38,1,1.0195348407059865,1.2988937048856217,0.0,0.0,0.0012900000000000001,0.00034
39,1,1.0294011616599936,-5.659302196377475,0.0,0.0,0.0,0.0
40,1,1.0229837874450998,-6.8513691712934905,0.0,0.0,0.0,0.0
41,1,1.022030064412898,-6.97067875732175,0.0,0.0,0.5799,0.15460000000000002
42,1,1.0259012198381783,-11.436658139010236,0.0,0.0,0.0,0.0
43,1,1.0258414795634256,-11.443882046161594,0.0,0.0,0.044610000000000004,0.011899999999999999
44,1,1.0175572893577294,-7.593289242160935,0.0,0.0,0.0,0.0
45,1,1.0175239337396,-7.597455037397252,0.0,0.0,0.02031,0.00542
46,1,0.9980012707446574,-11.050463975737626,0.0,0.0,0.0,0.0
47,1,0.9973370754599347,-11.132762417047152,0.0,0.0,0.4341,0.1158
48,1,1.011497647283899,-15.870235281982932,0.0,0.0,0.0,0.0
49,2,1.003,-15.642297381736661,0.013000000000000001,-0.03119284111425364,0.0,0.0
50,2,1.003,-15.608595852773522,0.026000000000000002,-0.05318208908694899,0.0,0.0
51,1,1.0114919324040326,-15.870928644066458,0.0,0.0,0.0035399999999999997,0.00094
52,1,1.011147800115019,-15.911863449359632,0.0,0.0,0.2339,0.06237
53,1,1.0110617974550469,-11.079461448794284,0.0,0.0,0.0,0.0
54,1,1.0105457161937539,-11.135677770692137,0.0,0.0,0.3481,0.09282
55,1,1.0245413302346629,-10.826346808048292,0.0,0.0,0.0,0.0
56,1,1.0245078144209838,-10.830207203860448,0.0,0.0,0.02253,0.00601
57,1,1.0129703492817808,-7.891022083289337,0.0,0.0,0.0,0.0
58,1,1.005609564374637,-10.515984392468068,0.0,0.0,0.0,0.0
59,1,1.0032834844396787,-10.81068161202058,0.0,0.0,1.409,0.37579999999999997
60,1,1.0194792814715232,-7.386037471972393,0.0,0.0,0.0,0.0
61,1,1.0194763599316359,-7.386417352524633,0.0,0.0,0.0020399999999999997,0.00054
62,1,1.0065927072364091,-9.733423987495973,0.0,0.0,0.0,0.0
63,2,1.01,-9.737219140567332,0.0,0.021044260482958998,0.0,0.0
64,1,1.0060617657764988,-9.79437742275172,0.0,0.0,0.3478,0.09273999999999999
65,1,1.02742826222796,-8.694024896149914,0.0,0.0,0.0,0.0
66,1,1.0253178850058622,-10.190545737719955,0.0,0.0,0.0,0.0
67,1,1.0252484997099942,-10.198470663848733,0.0,0.0,0.04569,0.01218
68,1,1.0254263351779824,-10.963065345313202,0.0,0.0,0.0,0.0
69,1,1.025139089567408,-10.998376078642556,0.0,0.0,0.1696,0.04523
70,1,0.9963750084793165,-12.981276290986388,0.0,0.0,0.0,0.0
71,2,0.996,-12.877450253677747,0.04,-0.009237009795167707,0.0,0.0
72,2,0.996,-12.813565566050874,0.02,-0.0029532289380726066,0.0,0.0
73,2,0.997,-12.76202302377013,0.013999999999999999,0.0016578613653797597,0.0,0.0
74,1,1.0253450123941454,-14.744705026274012,0.0,0.0,0.0,0.0
75,1,1.0252687324296839,-14.753901872836893,0.0,0.0,0.05301,0.01414
76,1,1.018001801891514,2.1813892763519283,0.0,0.0,0.0,0.0
77,1,1.0178939815174415,2.169369615488993,0.0,0.0,0.06951,0.01854
78,1,1.0160365151698796,-7.152615616666375,0.0,0.0,0.0,0.0
79,1,1.016030890241377,-7.153273663912013,0.0,0.0,0.00381,0.0010199999999999999
80,1,1.032962500083314,-8.139729191316809,0.0,0.0,0.0,0.0
81,1,1.0282361196187761,-10.59172700779423,0.0,0.0,0.0,0.0
82,2,1.04,-2.128717106781622,3.6189999999999998,0.374862014958663,0.0,0.0
83,1,1.004139806093545,-13.579654346081625,0.0,0.0,0.0,0.0
84,1,1.0031503775846573,-13.701390910288655,0.0,0.0,0.6141,0.1638
85,1,1.0263591677890125,-13.725737853582455,0.0,0.0,0.0,0.0
86,1,1.0260687932567472,-13.761406662842166,0.0,0.0,0.1759,0.04691
87,1,1.00158721516815,3.0002111242890614,0.0,0.0,0.0,0.0
88,1,1.0015046275033657,2.9900018195979783,0.0,0.0,0.05253,0.01401
89,1,1.0148294164571439,-8.948410810545479,0.0,0.0,0.0,0.0
90,1,1.0147372348091883,-8.960611967632392,0.0,0.0,0.05901,0.01574
91,1,1.014097951401261,-6.395313440248288,0.0,0.0,0.0,0.0
92,1,1.0131094406052943,-6.520966608787468,0.0,0.0,0.6503,0.1734
93,1,1.0153921410447235,-4.209283237139318,0.0,0.0,0.0,0.0
94,1,1.0153196782727874,-4.21837805800912,0.0,0.0,0.052140000000000006,0.0139
95,1,1.0144008181551833,-6.317303436884586,0.0,0.0,0.0,0.0
96,1,1.0139206894085553,-6.376082127741012,0.0,0.0,0.34,0.09066
97,1,1.0272583994911086,-16.502823961099104,0.0,0.0,0.0,0.0
98,1,1.026667963177633,-16.58008455008816,0.0,0.0,0.3709,0.09891
99,1,1.0234109086473204,-6.899759869803462,0.0,0.0,0.0,0.0
100,1,1.0231980713727804,-6.925269889639227,0.0,0.0,0.1352,0.03606
101,1,1.0233971579809131,-6.901274319039943,0.0,0.0,0.00891,0.0023799999999999997
102,1,1.0109498042098266,-14.485346194838286,0.0,0.0,0.0,0.0
103,1,1.0103161357436692,-14.56610067498769,0.0,0.0,0.38799999999999996,0.1035
104,1,1.0192823621428355,-15.28701573854598,0.0,0.0,0.0,0.0
105,1,1.017958486636316,-15.445449874488439,0.0,0.0,0.8033,0.21420000000000003
106,1,1.0207155233828884,-12.625388187524509,0.0,0.0,0.0,0.0
107,1,1.020491224123318,-12.652257660235387,0.0,0.0,0.16,0.042679999999999996
108,1,1.0155180016916043,-7.878508052046752,0.0,0.0,0.0,0.0
109,1,1.014832295444294,-7.953476986969731,0.0,0.0,0.4758,0.12689999999999999
110,1,1.027165393346926,-2.733996175468768,0.0,0.0,0.0,0.0
111,1,1.0262431605549274,-2.8547926864550064,0.0,0.0,0.6229,0.1661
112,1,1.0131543687063143,-11.621062742570244,0.0,0.0,0.0,0.0
113,1,1.0124830550266055,-11.696779802598238,0.0,0.0,0.45990000000000003,0.1226
114,1,1.0200973079006166,-14.125514128374656,0.0,0.0,0.0,0.0
115,1,1.0200277049020505,-14.134502592565848,0.0,0.0,0.05061,0.013500000000000002
116,1,1.020054343882985,-14.131104103019187,0.0,0.0,0.030990000000000004,0.00826
117,1,1.005971920371844,-12.058245546547733,0.0,0.0,0.0,0.0
118,1,1.0058260496987652,-12.076659916884335,0.0,0.0,0.08832000000000001,0.02355
119,1,0.9895224141538198,-13.031970938489861,0.0,0.0,0.0,0.0
120,1,0.989082998241932,-13.085901685943433,0.0,0.0,0.3165,0.08439999999999999
121,1,1.0064346972139386,-11.802365840285109,0.0,0.0,0.0,0.0
122,1,1.0055940384504012,-11.91408988779961,0.0,0.0,0.5336,0.1423
123,1,1.031149478798872,-2.181692496413755,0.0,0.0,0.0,0.0
124,1,1.0291555611723067,-2.871129038265171,0.0,0.0,0.0,0.0
125,2,1.03,-2.181252441231518,0.0,-0.02913295107263874,0.0,0.0
126,2,1.03,-2.1812548248755963,0.0,-0.054086940700307104,0.0,0.0
127,2,1.04,1.9647227626724881,1.62,0.23781090830920582,0.0,0.0
128,2,1.04,-0.8146851322391011,1.62,0.5836311332420946,0.0,0.0
129,1,0.9876038775006633,-13.75539675801126,0.0,0.0,0.0,0.0
130,1,0.9859688218276303,-13.93968048129323,0.0,0.0,1.032,0.2753
131,1,1.0202183525713393,-7.2666545346117255,0.0,0.0,0.0,0.0
132,1,1.019813367279869,-7.31433224165774,0.0,0.0,0.252,0.06721
133,1,1.015192420212659,-6.300652800860135,0.0,0.0,0.0,0.0
134,1,1.0146297468873515,-6.370526928761459,0.0,0.0,0.4265,0.1137
135,1,1.0109465947516247,-9.140519860650823,0.0,0.0,0.0,0.0
136,1,1.0105423947743277,-9.193259477371441,0.0,0.0,0.2676,0.07135
137,1,1.0083025415989917,-12.163860085561188,0.0,0.0,0.0,0.0
138,1,1.007074828642236,-12.325491150858227,0.0,0.0,0.787,0.20989999999999998
139,1,1.0159540372438025,-7.856943381671055,0.0,0.0,0.0,0.0
140,1,1.0159504008785125,-7.857371158666137,0.0,0.0,0.00255,0.00068
141,1,1.001420621436456,-0.23597807452471115,0.0,0.0,0.0,0.0
142,1,0.9988264673222056,-0.5347447528428969,0.0,0.0,1.6130000000000002,0.4302
143,1,1.0189325999103684,8.701587702677292,0.0,0.0,0.0,0.0
144,2,1.04,21.23226289941601,6.025,1.111564260488747,0.0,0.0
145,2,1.04,11.378670681076072,2.9819999999999998,1.263638667330335,0.0,0.0
146,1,1.0279527428725206,-5.688382174598102,0.0,0.0,0.0,0.0
147,1,1.0165592644917953,-6.353800636377683,0.0,0.0,0.0,0.0
148,1,1.0156287373849233,-6.474158151256279,0.0,0.0,0.5742,0.1531
149,1,1.0251942624518589,-11.421995932418683,0.0,0.0,0.0,0.0
150,1,1.0251698459546117,-11.424873292368268,0.0,0.0,0.015029999999999998,0.0040100000000000005
151,1,1.0270853802059074,-5.935676004603353,0.0,0.0,0.0,0.0
152,1,1.0187712741086594,-8.322885519144542,0.0,0.0,0.0,0.0
153,1,1.0175231018457762,-8.475859280774092,0.0,0.0,0.9315000000000001,0.2484
154,1,1.0096544239175038,-8.77138716869951,0.0,0.0,0.0,0.0
155,1,1.0087688925378269,-8.87904167417708,0.0,0.0,0.6684,0.1782
156,1,0.9863872751610528,-12.432670415773263,0.0,0.0,0.0,0.0
157,1,0.9847184287659362,-12.64548460206038,0.0,0.0,1.055,0.2812
158,1,1.0067705609523994,-11.36784841706747,0.0,0.0,0.0,0.0
159,1,1.0063992661529286,-11.415825013252364,0.0,0.0,0.2285,0.06094
160,1,1.0204336485820575,-12.910200934012506,0.0,0.0,0.0,0.0
161,1,1.0200498850376922,-12.959047606233684,0.0,0.0,0.2595,0.06921000000000001
162,1,1.0282116011006388,-5.6498483010404525,0.0,0.0,0.0,0.0
163,1,1.0243438000566125,-6.431578075572951,0.0,0.0,0.0,0.0
164,1,1.0226930934015865,-6.636323224907355,0.0,0.0,0.9815,0.26170000000000004
165,1,1.0315380661089344,-1.8515961108294934,0.0,0.0,0.0,0.0
166,1,1.0270243475204972,-3.1678016806446783,0.0,0.0,0.0,0.0
167,2,1.04,0.36810140312730744,1.935,0.4037680547086635,0.0,0.0
168,2,1.04,1.814026828788957,1.935,0.29399943551489505,0.0,0.0
169,2,1.04,3.4341995499776132,3.87,0.4694260677537171,0.0,0.0
170,1,1.0139305720088383,-6.4587624826824115,0.0,0.0,0.0,0.0
171,1,1.0137450186192296,-6.48386427963597,0.0,0.0,0.12380000000000001,0.033
172,1,1.0066720515886312,-10.780339189684062,0.0,0.0,0.0,0.0
173,1,1.0066249859728857,-10.785575008137231,0.0,0.0,0.031349999999999996,0.00836
174,1,1.0065706979057802,-10.792246234693657,0.0,0.0,0.07305,0.01948
175,1,1.0340796914174677,-1.3423636003656998,0.0,0.0,0.0,0.0
176,1,1.023264011600302,-0.5071862610598411,0.0,0.0,0.0,0.0
177,1,1.0231326163386598,-0.5240081841947157,0.0,0.0,0.08781,0.02342
178,1,1.023162378819964,-0.5182716018201925,0.0,0.0,0.06813,0.01817
179,1,0.9998028063131487,-12.601589514967854,0.0,0.0,0.0,0.0
180,1,0.9995799909954582,-12.626859214487363,0.0,0.0,0.1414,0.0377
181,1,1.041359091933609,-16.39310048116972,0.0,0.0,0.0,0.0
182,1,1.040067063644932,-16.548109153171925,0.0,0.0,0.8261,0.22030000000000002
183,1,1.0247833691462866,-4.501801157086849,0.0,0.0,0.0,0.0
184,1,1.0243870923134173,-4.548972587902265,0.0,0.0,0.3018,0.08047
185,1,1.0115972556415287,-7.9833917289045955,0.0,0.0,0.0,0.0
186,1,1.0109777817343464,-8.05747627220827,0.0,0.0,0.4535,0.1209
187,1,1.0140401140744997,-9.336736321765342,0.0,0.0,0.0,0.0
188,1,1.0138756846892139,-9.355002576823573,0.0,0.0,0.1105,0.02946
189,1,1.0282851838186888,-15.026576204559754,0.0,0.0,0.0,0.0
190,1,1.0280808904066048,-15.048128792385606,0.0,0.0,0.1407,0.03752
191,1,1.020729905326871,-13.58908294078324,0.0,0.0,0.0,0.0
192,1,1.0204578865224474,-13.621469574882065,0.0,0.0,0.16440000000000002,0.043840000000000004
193,1,1.014609458806592,-12.108976750721807,0.0,0.0,0.0,0.0
194,1,1.014125242306346,-12.166754018824578,0.0,0.0,0.2869,0.07652
195,1,1.0282540155555642,-5.6792425670509585,0.0,0.0,0.0,0.0
196,1,1.01883899147769,-7.942115141030581,0.0,0.0,0.0,0.0
197,2,1.04,-0.808586104822977,2.9360000000000004,0.46150433415645514,0.0,0.0
198,2,1.04,-3.2634026988700633,2.073,0.5659446613989453,0.0,0.0
199,1,1.0174969430881406,-8.091440963486173,0.0,0.0,0.8639,0.2304
200,1,1.0198861767161924,-7.192637464790821,0.0,0.0,0.0,0.0
201,1,1.0197525746310598,-7.207285813388366,0.0,0.0,0.08889,0.023700000000000002
202,1,1.0040347037958106,-10.192983889480608,0.0,0.0,0.0,0.0
203,1,1.003959594532555,-10.202168486453356,0.0,0.0,0.04689,0.0125
204,1,1.0033093373119872,-10.290180192748831,0.0,0.0,0.4567,0.12179999999999999
205,1,1.0225759563681815,-14.522700903491593,0.0,0.0,0.0,0.0
206,1,1.0225358884830074,-14.527450028602269,0.0,0.0,0.03009,0.008020000000000001
207,1,1.0222135494142366,-14.566324808455615,0.0,0.0,0.2257,0.06019
208,1,1.0175512896792316,-14.303681549101706,0.0,0.0,0.0,0.0
209,1,1.0163603767246683,-14.460776016224196,0.0,0.0,0.8186,0.2183
210,1,1.0019455356710285,-9.941440110452412,0.0,0.0,0.0,0.0
211,1,1.0013670791816704,-10.011951126166514,0.0,0.0,0.3428,0.09141
212,1,1.0205865221340311,-12.730202427901636,0.0,0.0,0.0,0.0
213,1,1.0190401542888903,-12.919121356117373,0.0,0.0,0.9748,0.26
214,1,1.0050244244484057,-12.977958789465326,0.0,0.0,0.0,0.0
215,1,1.0036768968005072,-13.153533803832174,0.0,0.0,0.8448,0.2253
216,1,0.9929120296740361,-13.32346616660257,0.0,0.0,0.0,0.0
217,1,0.9921140842946801,-13.418627695735882,0.0,0.0,0.551,0.1469
218,1,1.0271479316319112,-13.47183858036458,0.0,0.0,0.0,0.0
219,1,1.027142880107274,-13.472471953337452,0.0,0.0,0.00333,0.00089
220,1,1.0359609975686632,-1.6898219139334063,0.0,0.0,0.0,0.0
221,1,1.023212710394222,-4.814901501982522,0.0,0.0,0.0,0.0
222,2,1.036,-1.62807382869698,0.052000000000000005,0.0007114870094017556,0.0,0.0
223,2,1.038,-1.3981773804044255,0.18,0.06619814496483004,0.0,0.0
224,2,1.04,1.57458943613326,5.112,0.3914100335181503,0.0,0.0
225,2,1.04,0.00728774646699039,5.148,0.6779127134352966,0.0,0.0
226,1,1.014411158127412,-6.467815305868317,0.0,0.0,0.0,0.0
227,1,1.0143277693506179,-6.477388253280145,0.0,0.0,0.054240000000000003,0.014459999999999999
228,1,1.009213163758309,-7.126669240733094,0.0,0.0,0.0,0.0
229,1,1.0083819604457025,-7.231184890823927,0.0,0.0,0.5409,0.1442
230,1,1.0251846395860227,-11.458908784845685,0.0,0.0,0.0,0.0
231,2,1.013,-11.143509359738426,0.028999999999999998,-0.0658686513945328,0.0,0.0
232,1,1.027762448385044,-6.558392499759368,0.0,0.0,0.0,0.0
233,1,1.0150794162613352,-9.900855071185145,0.0,0.0,0.0,0.0
234,1,1.014213394694346,-10.009902437679377,0.0,0.0,0.5996,0.15990000000000001
235,1,1.0298694786868494,-10.484039448248247,0.0,0.0,0.0,0.0
236,1,1.0223232421564088,-11.696873453409752,0.0,0.0,0.0,0.0
237,1,1.0222810834021094,-11.701575687386503,0.0,0.0,0.027120000000000002,0.0072299999999999994
238,1,1.008352494259018,-9.683577883816879,0.0,0.0,0.0,0.0
239,1,1.0077776609411364,-9.760393253888493,0.0,0.0,0.39130000000000004,0.10439999999999999
240,1,1.023303770436408,-14.412647958541847,0.0,0.0,0.0,0.0
241,1,1.022994286880605,-14.454125454974841,0.0,0.0,0.1974,0.05264
242,1,1.000109528613883,-13.75585186961665,0.0,0.0,0.0,0.0
243,1,0.9989182497540847,-13.90707920535191,0.0,0.0,0.7447,0.1986
244,1,1.0097110165346068,-11.069253911607529,0.0,0.0,0.0,0.0
245,1,1.009542289393994,-11.089174232168453,0.0,0.0,0.1184,0.031560000000000005
246,1,1.0316635891354784,-5.425703838987705,0.0,0.0,0.0,0.0
247,1,1.026064523450373,-4.710149603804856,0.0,0.0,0.0,0.0
248,2,1.032,-5.426155108943754,0.0,0.006380739661058727,0.0,0.0
249,2,1.032,-5.426180819237941,0.0,0.006397200088426999,0.0,0.0
250,2,1.032,-5.426075836765522,0.0,0.034442060350346776,0.0,0.0
251,1,0.9911488515524755,-11.890838391631286,0.0,0.0,0.0,0.0
252,1,0.9891097173424455,-12.146608771100551,0.0,0.0,1.187,0.3165
253,1,0.9925134479953616,-12.294441703873208,0.0,0.0,0.0,0.0
254,2,0.991,-12.291701076396162,0.0,-0.011148634856649249,0.0,0.0
255,2,0.991,-12.292191118273836,0.0,-0.014151974058547014,0.0,0.0
256,2,0.991,-12.291390669351562,0.0,-0.007947780086468821,0.0,0.0
257,2,0.991,-12.29169018347105,0.0,-0.018523228830123875,0.0,0.0
258,2,0.992,-12.12718664183786,0.011000000000000001,-0.002344847201042144,0.0,0.0
259,1,0.992381324313494,-12.31060412454119,0.0,0.0,0.0816,0.02176
260,1,1.0275020376648645,-3.1124161782807076,0.0,0.0,0.0,0.0
261,1,1.0272366651480656,-3.1444864360457183,0.0,0.0,0.1868,0.04982
262,1,1.0267764569798967,-6.83345892637427,0.0,0.0,0.0,0.0
263,1,1.0164518538154426,-11.08466972126821,0.0,0.0,0.0,0.0
264,2,1.029,-6.834748036042973,0.0,0.045714805880786365,0.0,0.0
265,2,1.029,-6.834303485811754,0.0,0.06771310689958282,0.0,0.0
266,1,1.0155501425744138,-11.196235829110412,0.0,0.0,0.6178,0.1648
267,1,1.0165919595409785,-16.08792252902319,0.0,0.0,0.0,0.0
268,1,1.014904347479243,-16.311662015361954,0.0,0.0,1.171,0.3124
269,1,1.0154110310811342,-5.065841894400414,0.0,0.0,0.0,0.0
270,1,1.0153015277923156,-5.080294019037027,0.0,0.0,0.06801,0.01814
271,1,1.029207002513242,-10.671976700823999,0.0,0.0,0.0,0.0
272,1,1.0235200087716054,-12.401098966722266,0.0,0.0,0.0,0.0
273,1,1.0233684549259794,-12.421068746354118,0.0,0.0,0.09492,0.025310000000000003
274,1,1.026088835151048,-3.5466336530647955,0.0,0.0,0.0,0.0
275,2,1.026,-3.546487772404379,0.0,-0.0022333954611931015,0.0,0.0
276,1,1.010396237953656,-11.593585213661747,0.0,0.0,0.0,0.0
277,1,1.0103901629296947,-11.594385030674447,0.0,0.0,0.004050000000000001,0.00108
278,1,1.010307387260912,-11.605595041022582,0.0,0.0,0.05769,0.01538
279,1,1.0050748519595984,-8.743084673783681,0.0,0.0,0.0,0.0
280,1,1.0048196939738092,-8.770926578041614,0.0,0.0,0.16940000000000002,0.04518
281,1,1.0031705872146361,-14.62787778559757,0.0,0.0,0.0,0.0
282,1,1.0014012776435337,-14.860247955354902,0.0,0.0,1.173,0.3128
283,1,1.0164799102791928,-12.158917630464968,0.0,0.0,0.0,0.0
284,1,1.0159300302314327,-12.228051791627966,0.0,0.0,0.3265,0.08706
285,1,1.0287776737930052,-13.157693092837231,0.0,0.0,0.0,0.0
286,1,1.0286540114270746,-13.171515726299983,0.0,0.0,0.08268,0.02205
287,1,1.008177971099572,-10.384395275300285,0.0,0.0,0.0,0.0
288,1,1.0072960335485308,-10.505140309329702,0.0,0.0,0.5811,0.155
289,1,1.0210631864888207,-4.498692150485876,0.0,0.0,0.0,0.0
290,1,1.0210068816368016,-4.506118493807094,0.0,0.0,0.0369,0.00984
291,1,1.0031984393692883,-12.050786923720239,0.0,0.0,0.0,0.0
292,1,1.0030890196087914,-12.06408429887022,0.0,0.0,0.07617,0.02031
293,1,1.0211688760073563,-12.727844918574624,0.0,0.0,0.0,0.0
294,1,1.0207866185343804,-12.771739909139699,0.0,0.0,0.2561,0.06828000000000001
295,1,1.0223771536354156,-9.438794165039784,0.0,0.0,0.0,0.0
296,1,1.0222669013050636,-9.452848640689137,0.0,0.0,0.07788,0.02077
297,1,1.0204556922411216,-8.578185769072805,0.0,0.0,0.0,0.0
298,1,1.0173223897572254,-9.997280251870018,0.0,0.0,0.0,0.0
299,1,1.0171060875360858,-10.0254377117862,0.0,0.0,0.1457,0.038849999999999996
300,1,1.0063790632897778,-2.4279937551737194,0.0,0.0,0.0,0.0
301,2,1.007,-2.2957115661612115,0.028999999999999998,0.0068537311229769195,0.0,0.0
302,2,1.007,-2.3009305551506705,0.028999999999999998,0.006654904523056048,0.0,0.0
303,1,1.0048958124871012,-2.6159879725279267,0.0,0.0,0.8676,0.2314
304,1,0.988338767448767,-13.64028935469108,0.0,0.0,0.0,0.0
305,2,0.988,-13.324635018767854,0.01,-0.0009823737559564636,0.0,0.0
306,2,0.988,-13.287803212591916,0.024,-0.0017665796788347197,0.0,0.0
307,1,0.9872020840629523,-13.78856682840233,0.0,0.0,0.7604000000000001,0.2028
308,1,1.0186823700656245,-12.314578316653197,0.0,0.0,0.0,0.0
309,1,1.0185295449613736,-12.33362691149667,0.0,0.0,0.09029999999999999,0.02408
310,1,1.014094987349618,-15.61534083266687,0.0,0.0,0.0,0.0
311,1,1.0134132333579706,-15.698962728141192,0.0,0.0,0.43829999999999997,0.11689999999999999
312,1,1.020080125601343,-14.479493895783802,0.0,0.0,0.0,0.0
313,1,1.0198723598367487,-14.505563616900899,0.0,0.0,0.1244,0.033170000000000005
314,1,1.0243121461699993,-10.416584499508946,0.0,0.0,0.0,0.0
315,1,1.02430641933684,-10.417282301476204,0.0,0.0,0.00426,0.00114
316,1,1.019312970793892,-0.6376935996978741,0.0,0.0,0.0,0.0
317,1,1.0192583426812312,-0.6436261708315222,0.0,0.0,0.03753,0.010009999999999998
318,1,1.021780117315877,-1.4942266826255428,0.0,0.0,0.0,0.0
319,2,1.034,0.23208668950967778,0.423,0.1640167577139575,0.0,0.0
320,1,0.9963161913786601,-13.954248725534637,0.0,0.0,0.0,0.0
321,1,0.9938951798774163,-14.254626954459972,0.0,0.0,1.504,0.4011
322,1,1.0021762865205737,-12.249757408456205,0.0,0.0,0.0,0.0
323,1,1.0015031599684465,-12.325574768396756,0.0,0.0,0.45270000000000005,0.1207
324,1,0.9923542529658391,-13.388121414465857,0.0,0.0,0.0,0.0
325,1,0.9907527958059923,-13.603402889883045,0.0,0.0,1.035,0.2759
326,1,1.0082454562921324,-12.79361355593146,0.0,0.0,0.0,0.0
327,1,1.0065278616743287,-13.001533129145074,0.0,0.0,1.2109999999999999,0.32280000000000003
328,1,1.0052389241500341,-11.376741967161259,0.0,0.0,0.0,0.0
329,1,1.0048857727135267,-11.419340105940725,0.0,0.0,0.2602,0.06938
330,1,1.0152156188125587,-7.961618170664809,0.0,0.0,0.0,0.0
331,1,1.0143083773565655,-8.080258857184875,0.0,0.0,0.5717,0.1525
332,1,1.0293122480077632,-5.586356109892906,0.0,0.0,0.0,0.0
333,1,1.0206278596246368,-7.170696755646746,0.0,0.0,0.0,0.0
334,1,1.0206204129405279,-7.171528635932839,0.0,0.0,0.00501,0.00134
335,1,1.020615010779161,-7.172249531168838,0.0,0.0,0.00834,0.00222
336,1,1.0160173387636788,-2.7892865588830746,0.0,0.0,0.0,0.0
337,1,1.0159277486008609,-2.8011075594473174,0.0,0.0,0.05673,0.01513
338,1,1.0113065576543927,7.403816363512512,0.0,0.0,0.0,0.0
339,1,1.0101686462462287,7.257200172792373,0.0,0.0,0.7511,0.2003
340,1,1.003381641290519,-9.423909434256801,0.0,0.0,0.0,0.0
341,1,1.0029843147923072,-9.474691610964843,0.0,0.0,0.2422,0.06459
342,1,1.0115394280647412,-12.586026636418723,0.0,0.0,0.0,0.0
343,1,1.0115011030388548,-12.590911737209302,0.0,0.0,0.02511,0.0067
344,1,1.0115008630169384,-12.591093678662938,0.0,0.0,0.024300000000000002,0.0064800000000000005
345,1,0.996903798351555,-12.813182520660211,0.0,0.0,0.0,0.0
346,1,0.996231052021818,-12.896567128377372,0.0,0.0,0.4758,0.12689999999999999
347,1,0.9891973806020367,-12.65572204589927,0.0,0.0,0.0,0.0
348,1,0.9879605181986617,-12.805895134964038,0.0,0.0,0.8640000000000001,0.2304
349,1,1.0198138736754432,-11.452080076339268,0.0,0.0,0.0,0.0
350,2,1.024,-10.870953358227235,0.15,0.054962386433850416,0.0,0.0
351,2,1.022,-11.187376407729491,0.062,0.025289134910120057,0.0,0.0
352,2,1.024,-10.891386479803225,0.14400000000000002,0.05405651420984111,0.0,0.0
353,2,1.04,-8.60565553421409,0.74,0.2812204628791723,0.0,0.0
354,1,1.0216055177614196,-7.0280987625446,0.0,0.0,0.0,0.0
355,1,1.0212746992865338,-7.067300927606745,0.0,0.0,0.1996,0.053239999999999996
356,1,1.0191186778728392,-14.910536982050967,0.0,0.0,0.0,0.0
357,1,1.0183151212975834,-15.01138231451903,0.0,0.0,0.5573,0.14859999999999998
358,1,1.018338480312663,-16.10979612112623,0.0,0.0,0.0,0.0
359,1,1.01810839571812,-16.136627805704638,0.0,0.0,0.1459,0.038900000000000004
360,1,1.0021704599926764,-10.105988177043441,0.0,0.0,0.0,0.0
361,2,1.002,-10.105587060742403,0.0,-0.0005064668989576094,0.0,0.0
362,2,1.002,-10.10569575183204,0.0,-0.0014477106656939193,0.0,0.0
363,2,1.002,-10.105799867584501,0.0,-0.0014733106979224159,0.0,0.0
364,1,1.0017256138231119,-10.16542148782951,0.0,0.0,0.3044,0.08117
365,1,1.004132893036654,-12.041899286909151,0.0,0.0,0.0,0.0
366,1,1.0032382674172848,-12.163063832348689,0.0,0.0,0.5649000000000001,0.1506
367,1,1.01671989684365,-6.336878043848833,0.0,0.0,0.0,0.0
368,1,1.0165650858493962,-6.356405693475364,0.0,0.0,0.11449999999999999,0.030539999999999998
369,1,1.0199907627986213,-5.322506411714666,0.0,0.0,0.0,0.0
370,1,1.0195062582691494,-5.379617796011718,0.0,0.0,0.35600000000000004,0.09494
371,1,1.0270540632847056,-6.4046461085147905,0.0,0.0,0.0,0.0
372,1,1.0179279677586606,-9.995262273973047,0.0,0.0,0.0,0.0
373,1,1.0175224552869961,-10.043534484846177,0.0,0.0,0.2884,0.07690000000000001
374,1,1.00098621253292,-12.496235272955364,0.0,0.0,0.0,0.0
375,1,1.0006634425715204,-12.536953525186178,0.0,0.0,0.2477,0.06604
376,1,1.0079461080982661,-9.020207787388747,0.0,0.0,0.0,0.0
377,1,1.0066881945027712,-9.184601868269077,0.0,0.0,0.9039,0.24100000000000002
378,1,1.0201909211036093,-1.8270258456393342,0.0,0.0,0.0,0.0
379,1,1.0199860736183093,-1.8532616993517643,0.0,0.0,0.1301,0.0347
380,1,1.0102402659208407,-7.994218771386341,0.0,0.0,0.0,0.0
381,1,1.0100911336679024,-8.013837541683332,0.0,0.0,0.1013,0.02702
382,1,1.0262760368147126,-14.768266970521461,0.0,0.0,0.0,0.0
383,1,1.0258394614722939,-14.824157760610015,0.0,0.0,0.2995,0.07986
384,1,1.0005227868349682,-13.160136925041371,0.0,0.0,0.0,0.0
385,1,1.0000066702458856,-13.222976833583916,0.0,0.0,0.36619999999999997,0.09766
386,1,1.0276458663395782,-3.519036823285214,0.0,0.0,0.0,0.0
387,1,1.0223108671559697,-5.262405288964621,0.0,0.0,0.0,0.0
388,2,1.027,-3.518731294313432,0.0,-0.015632918119902393,0.0,0.0
389,2,1.027,-3.5186038173341987,0.0,-0.018548789171707877,0.0,0.0
390,2,1.027,-3.518759620327402,0.0,-0.024314689093305614,0.0,0.0
391,2,1.027,-3.5186989082995193,0.0,-0.02706261576894154,0.0,0.0
392,2,1.027,-3.518720275986968,0.0,-0.02010623566935147,0.0,0.0
393,2,1.027,-3.518778764275437,0.0,-0.019806053153271518,0.0,0.0
394,2,1.027,-3.5183984645245845,0.0,-0.03015021207351366,0.0,0.0
395,2,1.027,-3.5183709203638087,0.0,-0.011794179585272471,0.0,0.0
396,2,1.027,-3.5187876767144446,0.0,-0.030595236200451795,0.0,0.0
397,1,1.021765186695124,-5.331716166962378,0.0,0.0,0.3995,0.1065
398,1,1.0220613450488043,-5.289266437164806,0.0,0.0,0.1677,0.04471
399,1,1.0233318951070016,-12.666921649838386,0.0,0.0,0.0,0.0
400,1,1.0229372106562244,-12.714561206467097,0.0,0.0,0.2302,0.061399999999999996
401,1,1.0078377410083206,4.1537453881926325,0.0,0.0,0.0,0.0
402,1,1.0065153100419455,3.9753050656016327,0.0,0.0,0.8835,0.23559999999999998
403,1,1.0131032195945553,-12.19838175324848,0.0,0.0,0.0,0.0
404,1,1.0128023569094367,-12.234834973407523,0.0,0.0,0.1977,0.05272
405,1,1.0053959270552562,-3.0658490017425004,0.0,0.0,0.0,0.0
406,1,1.0053159871461352,-3.0759542263590647,0.0,0.0,0.0525,0.013999999999999999
407,1,1.0346170272760231,-9.041939594931602,0.0,0.0,0.0,0.0
408,1,1.0282999322867077,-11.150746479930996,0.0,0.0,0.0,0.0
409,2,1.034,-9.041637597980229,0.0,-0.010441999816006329,0.0,0.0
410,2,1.04,-7.268534820944032,0.7943000000000001,0.14055754460364514,0.0,0.0
411,2,1.04,-8.05041147091951,0.7943000000000001,0.23977517960680708,0.0,0.0
412,2,1.04,-7.905081822836722,0.7943000000000001,0.20984910395232803,0.0,0.0
413,2,1.04,-7.722056686876654,0.616,0.1372353950587257,0.0,0.0
414,2,1.034,-9.041167419795551,0.0,-0.014424736776667503,0.0,0.0
415,1,1.0036228883753544,-11.376508365215846,0.0,0.0,0.0,0.0
416,1,1.0035290516344533,-11.389243485838529,0.0,0.0,0.060629999999999996,0.01617
417,1,0.9989255146381013,-10.918753664761066,0.0,0.0,0.0,0.0
418,1,0.997912567297663,-11.041034467255233,0.0,0.0,0.6362,0.1696
419,1,1.0109957177075812,-15.151678265094182,0.0,0.0,0.0,0.0
420,1,1.0109147349752396,-15.16223319022329,0.0,0.0,0.05226,0.01394
421,1,1.012677260291886,-8.404197758464704,0.0,0.0,0.0,0.0
422,1,1.011968616955067,-8.484988280541703,0.0,0.0,0.4918,0.1311
423,1,0.9975518099678261,3.3571284877583594,0.0,0.0,0.0,0.0
424,1,0.9948291812288719,3.0231948036750524,0.0,0.0,1.571,0.4189
425,1,1.01958850563586,-8.86060265890233,0.0,0.0,0.0,0.0
426,1,1.0140809807505737,-11.157673932364618,0.0,0.0,0.0,0.0
427,1,1.0138697588204577,-11.180561764975547,0.0,0.0,0.14429999999999998,0.03849
428,1,1.030713525381868,-5.424448122262739,0.0,0.0,0.0,0.0
429,1,1.020443428900215,-7.224304616292879,0.0,0.0,0.0,0.0
430,2,1.031,-5.390467908733535,0.01,0.004464865708101736,0.0,0.0
431,2,1.031,-5.359731506791858,0.033,0.007784509362774173,0.0,0.0
432,2,1.031,-5.404020039952574,0.012,0.009217728304794262,0.0,0.0
433,2,1.033,-5.0975232231609375,0.067,0.025562328490872487,0.0,0.0
434,2,1.031,-5.372160919566155,0.043,0.012495487192893352,0.0,0.0
435,2,1.031,-5.424611538719882,0.0,0.010451356531433292,0.0,0.0
436,2,1.031,-5.424692945708043,0.0,0.020639786227129888,0.0,0.0
437,2,1.04,-3.4864511458099323,1.97,0.5420431271673046,0.0,0.0
438,2,1.04,-2.990289743851625,1.97,0.41309614734602795,0.0,0.0
439,2,1.04,-3.899679790686279,1.97,0.6750063080472241,0.0,0.0
440,1,1.0169526658381696,-7.4037176279904555,0.0,0.0,0.0,0.0
441,1,1.0027310730413341,-11.459299607641436,0.0,0.0,0.0,0.0
442,2,1.015,-7.402486759222807,0.0,-0.0443489726709112,0.0,0.0
443,2,1.015,-7.402975675551834,0.0,-0.07425836416630723,0.0,0.0
444,2,1.015,-7.402390516941833,0.0,-0.022137334414595713,0.0,0.0
445,1,1.0094596776652631,-9.375980720586062,0.0,0.0,0.0,0.0
446,1,1.0080168996952457,-9.545647066125051,0.0,0.0,0.8868,0.2365
447,1,1.0185348754270802,-7.881001101825508,0.0,0.0,0.0,0.0
448,1,1.017626427749968,-7.998348961930223,0.0,0.0,0.5756,0.1535
449,1,1.0120612408175913,-8.433378112930473,0.0,0.0,0.0,0.0
450,1,1.0120456280285217,-8.435379555370206,0.0,0.0,0.01122,0.00299
451,1,1.0120311579073968,-8.437154233205078,0.0,0.0,0.022109999999999998,0.0059
452,1,1.0167087224232105,3.4619838590009206,0.0,0.0,0.1116,0.029769999999999998
453,1,1.0299405417405019,-6.696348995504561,0.0,0.0,0.0,0.0
454,1,1.011346276424783,-10.99075091919832,0.0,0.0,0.0,0.0
455,2,1.04,-6.1273827434561365,0.6685,0.639903430457597,0.0,0.0
456,2,1.04,-5.508409072792009,1.337,0.6289872220078684,0.0,0.0
457,1,1.0191023542253692,-7.104813610713157,0.0,0.0,0.0,0.0
458,2,1.021,-2.7486330312648746,1.0959999999999999,0.0379663380712141,0.0,0.0
459,1,1.0094624171216025,6.929232943057499,0.0,0.0,0.7447,0.1986
460,1,1.00503001416014,-9.367711660107537,0.0,0.0,0.2634,0.07025
461,1,1.0048126421581212,-9.329156886091857,0.0,0.0,0.9172,0.2446
462,1,1.023660678774528,-7.471759911383774,0.0,0.0,0.0,0.0
463,2,1.019,-7.466828670108295,0.0,-0.04960029045234129,0.0,0.0
464,1,1.028595820968671,-5.693832816948483,0.0,0.0,0.0,0.0
465,1,1.0254172934197525,-6.722254480663081,0.0,0.0,0.1252,0.03339
466,1,1.01860067984719,-7.51017271122002,0.0,0.0,0.4334,0.11560000000000001
467,1,1.0164538886120846,-6.621477831191166,0.0,0.0,0.00807,0.00215
468,1,1.007574423093701,-8.089610127078526,0.0,0.0,0.03762,0.010029999999999999
469,1,0.9923139780039978,-11.582884556700513,0.0,0.0,1.285,0.3427
470,1,1.0176318687386565,-6.2254671520137705,0.0,0.0,0.42560000000000003,0.11349999999999999
471,1,1.029295050454053,-5.381131879437906,0.0,0.0,0.0,0.0
472,1,1.0223036839698703,-6.873217017188207,0.0,0.0,0.4971,0.1326
473,1,1.0186532945677582,-5.816866241982459,0.0,0.0,0.00999,0.00266
474,1,1.0023603465026865,-9.55761181005819,0.0,0.0,0.0,0.0
475,1,1.0161117032410714,-5.746047552026291,0.0,0.0,0.0016200000000000001,0.00043
476,1,1.011406563200571,-11.236658898024038,0.0,0.0,0.5986,0.15960000000000002
477,1,1.0230237630744787,-8.633053252210985,0.0,0.0,0.0,0.0
478,1,1.018943106979209,-4.1892200340574215,0.0,0.0,0.0,0.0
479,1,1.0329608247430024,-5.343038697633578,0.0,0.0,0.0,0.0
480,2,1.04,-3.473268044915622,0.56,0.10370433414771042,0.0,0.0
481,2,1.04,-4.029133738040094,0.45,0.12963659624714205,0.0,0.0
482,2,1.039,-4.5905875671513,0.45,0.18270750083852472,0.0,0.0
483,2,1.04,-4.066628842581802,0.24,0.0671909005441864,0.0,0.0
484,2,1.039,-4.531001769985464,0.28,0.10883021670793336,0.0,0.0
485,1,1.0075755937254842,-11.83275078300415,0.0,0.0,0.2788,0.07434
486,1,1.0104505241230888,-10.960750690612484,0.0,0.0,0.6853,0.18280000000000002
487,1,1.0347086303491777,-15.004115579361997,0.0,0.0,0.1167,0.031110000000000002
488,1,0.9900856623368905,-11.778934040279635,0.0,0.0,0.9790000000000001,0.2611
489,1,1.0248038880197676,-11.416592162626756,0.0,0.0,0.0,0.0
490,1,0.9991358606685032,-12.786090978338581,0.0,0.0,0.2981,0.0795
491,1,1.0110583017623138,-12.90045957192112,0.0,0.0,1.195,0.3187
492,1,1.004596922949983,-3.7611426748848293,0.0,0.0,0.5954,0.1588
493,1,1.0158056538986904,-6.429362498232227,0.0,0.0,0.04047,0.01079
494,2,1.014,-6.427477609442729,0.0,-0.028474844471343342,0.0,0.0
495,1,1.0096135349244701,-8.788162137706115,0.0,0.0,0.7517,0.2005
496,1,1.012693958887292,7.197014989715126,0.0,0.0,0.0,0.0
497,2,1.027,9.317921626838416,0.6,0.22446328345654099,0.0,0.0
498,2,1.021,8.354544440644826,0.18,0.06780406308714723,0.0,0.0
499,1,1.0003574255747092,-13.139569754229235,0.0,0.0,1.2229999999999999,0.3262
500,1,1.0235837906266607,-11.403383533698713,0.0,0.0,0.0,0.0
